/*--------------------------------*- C++ -*----------------------------------*\
  =========                 |
  \\      /  F ield         | OpenFOAM: The Open Source CFD Toolbox
   \\    /   O peration     | Website:  https://openfoam.org
    \\  /    A nd           | Version:  8
     \\/     M anipulation  |
\*---------------------------------------------------------------------------*/
FoamFile
{
    version     2.0;
    format      ascii;
    class       dictionary;
    object      setFieldsDict;
}
// * * * * * * * * * * * * * * * * * * * * * * * * * * * * * * * * * * * * * //

defaultFieldValues
(
    volScalarFieldValue alpha.sludge 0
);

regions
(
    boxToCell
    {
        box (-20 0 0) (0 20 1);

        fieldValues
        (
            volScalarFieldValue alpha.sludge 1
        );
    }
    
    boxToCell
    {
        box (40 0 0) (60 20 1);

        fieldValues
        (
            volScalarFieldValue alpha.sludge 1
        );
    }
    
);

// ************************************************************************* //
